  Page 1                                    Tue Feb 15 14:36:15 2022

  ******************************************************************
  *                           E P A N E T                          *
  *                   Hydraulic and Water Quality                  *
  *                   Analysis for Pipe Networks                   *
  *                         Version 2.1                            *
  ******************************************************************
  
  Analysis begun Tue Feb 15 14:36:15 2022

  Analysis ended Tue Feb 15 14:36:17 2022
