  Page 1                                    Fri Feb 18 08:22:27 2022

  ******************************************************************
  *                           E P A N E T                          *
  *                   Hydraulic and Water Quality                  *
  *                   Analysis for Pipe Networks                   *
  *                         Version 2.1                            *
  ******************************************************************
  
  Analysis begun Fri Feb 18 08:22:27 2022

  Analysis ended Fri Feb 18 08:22:27 2022
